Circuit: * C:\users\gabrielpessoa\Meus Documentos\Aulas\CIRCUITOS 2\Circuito1.asc

Direct Newton iteration for .op point succeeded.

Date: Mon Aug 12 22:26:47 2024
Total elapsed time: 0.039 seconds.

tnom = 27
temp = 27
method = trap
totiter = 3
traniter = 0
tranpoints = 0
accept = 0
rejected = 0
matrix size = 4
fillins = 0
solver = Normal
Avg thread counts: 8.0/0.0/8.0/8.0
Matrix Compiler1:      13 opcodes
Matrix Compiler2:      24 opcodes
