Circuit: * C:\users\gabrielpessoa\Meus Documentos\Aulas\CIRCUITOS 2\Draft4.asc

Direct Newton iteration for .op point succeeded.

Date: Mon Aug 12 00:27:18 2024
Total elapsed time: 0.029 seconds.

tnom = 27
temp = 27
method = trap
totiter = 3
traniter = 0
tranpoints = 0
accept = 0
rejected = 0
matrix size = 10
fillins = 8
solver = Normal
Avg thread counts: 8.0/0.0/8.0/8.0
Matrix Compiler1: 726 bytes object code size
Matrix Compiler2: 810 bytes object code size
